docs/ieee8500_v42_aemo_voltage_rebuild/ac/POLICY_P1/VOLTAGE_VIOLATIONS.csv
stage,slot,node,voltage_pu,violation
POLICY_P1,0,_hvmv_sub_lsb.1,1.0507926953134636,over
POLICY_P1,0,_hvmv_sub_lsb.2,1.0505137460484149,over
POLICY_P1,0,_hvmv_sub_lsb.3,1.0506699195092648,over
POLICY_P1,0,hvmv_sub_48332.1,1.0507927320362036,over
POLICY_P1,0,hvmv_sub_48332.2,1.050513779474528,over
POLICY_P1,0,hvmv_sub_48332.3,1.0506699554513945,over
POLICY_P1,0,l2730106.3,1.052583917400966,over
POLICY_P1,0,n1142099.3,1.0526009186948064,over
POLICY_P1,0,m1125955.3,1.0514475557773428,over
POLICY_P1,0,m1125957.3,1.051446728625958,over
POLICY_P1,0,l3030199.3,1.051331627792357,over
POLICY_P1,0,m1125934.3,1.0513458547584777,over
POLICY_P1,0,221-312488.3,1.051409919925151,over
POLICY_P1,0,m1089183.3,1.0514094659428936,over
POLICY_P1,0,p895111.3,1.0511077316918258,over
POLICY_P1,0,l2895496.3,1.0510943582100465,over
POLICY_P1,0,m1142873.3,1.0510846714850437,over
POLICY_P1,0,l3179682.3,1.0518316744839837,over
POLICY_P1,0,l2786274.3,1.051828791266327,over
POLICY_P1,0,m1108328.3,1.0509278903696697,over
POLICY_P1,0,l2875754.3,1.0509247309914744,over
POLICY_P1,0,l2767340.3,1.051915682301011,over
POLICY_P1,0,m3037449.3,1.0519155643607554,over
POLICY_P1,0,l2674027.3,1.0530478736898938,over
POLICY_P1,0,l2692633.3,1.0531045166209154,over
POLICY_P1,0,l2898515.3,1.0503394071620105,over
POLICY_P1,0,m1166387.3,1.0503319914970284,over
POLICY_P1,0,m1142871.3,1.051093324802542,over
POLICY_P1,0,m1142874.3,1.0511092770573023,over
POLICY_P1,0,l2955081.3,1.0517895863886784,over
POLICY_P1,0,m1108315.3,1.0518402213895155,over
POLICY_P1,0,m4122658.3,1.052452474694352,over
POLICY_P1,0,l2933135.3,1.052453664409079,over
POLICY_P1,0,m1108505.3,1.052892169584206,over
POLICY_P1,0,l2955047.3,1.0529398772520977,over
POLICY_P1,0,l3214071.3,1.0514218819669825,over
POLICY_P1,0,m1125952.3,1.0514550284150892,over
POLICY_P1,0,l3142049.3,1.0526716938161826,over
POLICY_P1,0,m1108493.3,1.0527381639025104,over
POLICY_P1,0,m1108381.3,1.051652490496183,over
POLICY_P1,0,l3254237.3,1.0515967310458643,over
POLICY_P1,0,m1142851.3,1.0509416504933478,over
POLICY_P1,0,196-31070.3,1.0509459106368395,over
POLICY_P1,0,m1142843.3,1.0509022960364003,over
POLICY_P1,0,l3081380.3,1.0509421199483726,over
POLICY_P1,0,n1142104.3,1.0528355682542647,over
POLICY_P1,0,m1108500.3,1.0528718639652677,over
POLICY_P1,0,m1186061.3,1.0500893658354666,over
POLICY_P1,0,m1142832.3,1.0510249516822598,over
POLICY_P1,0,l3160865.3,1.0510582526412002,over
POLICY_P1,0,m1142863.3,1.0509795034625917,over
POLICY_P1,0,n1141480.3,1.0509789306153132,over
POLICY_P1,0,m1142818.3,1.051248794532938,over
POLICY_P1,0,p829965.3,1.051251347751854,over
POLICY_P1,0,m3032980.3,1.0503035570316706,over
POLICY_P1,0,m3032977.3,1.050384492994335,over
POLICY_P1,0,m1125919.3,1.0514630402159437,over
POLICY_P1,0,m1142819.3,1.0512127569538277,over
POLICY_P1,0,m1108295.3,1.0517655260610175,over
POLICY_P1,0,l2936279.3,1.0514951534447403,over
POLICY_P1,0,m1125968.3,1.0517580820079826,over
POLICY_P1,0,p895107.3,1.0517550135634453,over
POLICY_P1,0,m1166370.3,1.0504799795201671,over
POLICY_P1,0,m1166364.3,1.0504764784235934,over
POLICY_P1,0,l2990826.3,1.051407710094404,over
POLICY_P1,0,m3037455.3,1.0509940491945793,over
POLICY_P1,0,l3217052.3,1.0509866310215072,over
POLICY_P1,0,l2952003.3,1.0517850617195874,over
POLICY_P1,0,m1142839.3,1.0509954076878363,over
POLICY_P1,0,l3067507.3,1.0509927294956394,over
POLICY_P1,0,m1108334.3,1.0503010858876465,over
POLICY_P1,0,l2692664.3,1.0502986391690226,over
POLICY_P1,0,226-23751.3,1.051767342511484,over
POLICY_P1,0,e193509.3,1.0509725736796227,over
POLICY_P1,0,m1166375.3,1.0506316804523677,over
POLICY_P1,0,m1108298.3,1.0522349417751555,over
POLICY_P1,0,196-36167.3,1.0522927552703536,over
POLICY_P1,0,e183472.3,1.0522148762039205,over
POLICY_P1,0,l2989566.3,1.0521251379013044,over
POLICY_P1,0,p862322.3,1.0516519923812655,over
POLICY_P1,0,m1142868.3,1.0510592408610286,over
POLICY_P1,0,m1142869.3,1.0510811670093467,over
POLICY_P1,0,l2767414.3,1.0508329403235086,over
POLICY_P1,0,p850072.3,1.0514760461051493,over
POLICY_P1,0,221-311609.3,1.051475772150846,over
POLICY_P1,0,l2711226.3,1.0511715705352316,over
POLICY_P1,0,n1230121.3,1.0518037606205555,over
POLICY_P1,0,m1142865.3,1.0510058535765998,over
POLICY_P1,0,m1209790.3,1.0502477516178943,over
POLICY_P1,0,m1209788.3,1.050251810796198,over
POLICY_P1,0,m1108375.3,1.0519147515344434,over
POLICY_P1,0,m1108380.3,1.0520588539095674,over
POLICY_P1,0,m1142860.3,1.0509612486694215,over
POLICY_P1,0,p850080.3,1.0514946132470344,over
POLICY_P1,0,221-311905.3,1.0514942692099125,over
POLICY_P1,0,m1186072.3,1.050291522502656,over
POLICY_P1,0,m1186067.3,1.0502969356111342,over
POLICY_P1,0,r42247.3,1.05077817160971,over
POLICY_P1,0,m1149233.3,1.0508033176001321,over
POLICY_P1,0,m1149236.3,1.0507606477459543,over
POLICY_P1,0,l3160862.3,1.0510505748989216,over
POLICY_P1,0,l3104850.3,1.0510408026831501,over
POLICY_P1,0,m1108311.3,1.0519515932718764,over
POLICY_P1,0,l2898526.3,1.051950499167243,over
POLICY_P1,0,l3048965.3,1.0508654089189686,over
POLICY_P1,0,l2936211.3,1.0514421390479896,over
POLICY_P1,0,p829962.3,1.0510232346403563,over
POLICY_P1,0,m1142835.3,1.0510209401624968,over
POLICY_P1,0,d5710794-3_int.1,1.050753516363804,over
POLICY_P1,0,d5710794-3_int.2,1.0504674189328418,over
POLICY_P1,0,d5710794-3_int.3,1.05065824800907,over
POLICY_P1,0,e192860.1,1.050735587390419,over
POLICY_P1,0,e192860.2,1.050448368104383,over
POLICY_P1,0,e192860.3,1.0506394537981336,over
POLICY_P1,0,m1142833.3,1.051018013572294,over
POLICY_P1,0,m1125959.3,1.051502013317277,over
POLICY_P1,0,m1125974.3,1.0514932597782267,over
POLICY_P1,0,m1125976.3,1.0517964405516929,over
POLICY_P1,0,p829956.3,1.0510930850440237,over
POLICY_P1,0,d5535139-1_int.3,1.052294173135232,over
POLICY_P1,0,e183473.3,1.0522874580495107,over
POLICY_P1,0,m1125997.3,1.0522918484157828,over
POLICY_P1,0,221-242079.3,1.0502683000727704,over
POLICY_P1,0,l3011293.3,1.050264445819083,over
POLICY_P1,0,q1301.3,1.0509367608917537,over
POLICY_P1,0,l3160872.3,1.0509411124947268,over
POLICY_P1,0,l3232902.3,1.0524247636153188,over
POLICY_P1,0,l3123509.3,1.050267671225225,over
POLICY_P1,0,m1209772.3,1.0502677043280033,over
POLICY_P1,0,r20703.3,1.0522919422616763,over
POLICY_P1,0,l2859403.3,1.0523217204922346,over
POLICY_P1,0,m1125914.3,1.0515470231390185,over
POLICY_P1,0,l2917328.3,1.051568466367391,over
POLICY_P1,0,l2973833.3,1.0505555740223667,over
POLICY_P1,0,m1166373.3,1.0505747727778019,over
POLICY_P1,0,m1125987.3,1.0519629671614785,over
POLICY_P1,0,p901945.3,1.0519602021573995,over
POLICY_P1,0,m1209787.3,1.0502614926136689,over
POLICY_P1,0,l2823611.3,1.050273872224759,over
POLICY_P1,0,196-35541.3,1.051709887431897,over
POLICY_P1,0,m1108317.3,1.051409954104204,over
POLICY_P1,0,l2730163.3,1.0513819818172494,over
POLICY_P1,0,221-308718.3,1.0516516417340684,over
POLICY_P1,0,n1139547.3,1.050593191810789,over
POLICY_P1,0,l2688693.3,1.0503340288199818,over
POLICY_P1,0,l2692655.3,1.051155830739142,over
POLICY_P1,0,m1142821.3,1.051185046677658,over
POLICY_P1,0,m1108398.3,1.051476253570314,over
POLICY_P1,0,m1125944.3,1.0512857644260876,over
POLICY_P1,0,m1125947.3,1.0513873573351604,over
POLICY_P1,0,p829977.3,1.0502175538872467,over
POLICY_P1,0,m1142815.3,1.051258372784779,over
POLICY_P1,0,m1166386.3,1.0503850663707899,over
POLICY_P1,0,n1142100.3,1.0526274396528152,over
POLICY_P1,0,m1142828.3,1.051124039850591,over
POLICY_P1,0,l2674047.3,1.051124193584222,over
POLICY_P1,0,m1149235.3,1.0507839540881971,over
POLICY_P1,0,m1209791.3,1.0502442116935686,over
POLICY_P1,0,l3011298.3,1.0520249754837596,over
POLICY_P1,0,m1125917.3,1.0514876159413848,over
POLICY_P1,0,p1197121.3,1.051486777412081,over
POLICY_P1,0,l2805031.3,1.0514818727381527,over
POLICY_P1,0,l2786266.3,1.0506138621414514,over
POLICY_P1,0,l2936271.3,1.051252402218062,over
POLICY_P1,0,m1108379.3,1.0520738831281171,over
POLICY_P1,0,m1125989.3,1.0520340224438174,over
POLICY_P1,0,l2898495.3,1.0519553453572617,over
POLICY_P1,0,m1186065.3,1.0502761152552889,over
POLICY_P1,0,m1186064.3,1.0502794324629,over
POLICY_P1,0,m1209776.3,1.0502773531664669,over
POLICY_P1,0,m1209775.3,1.0502748142404315,over
POLICY_P1,0,m1125962.3,1.0515068460783696,over
POLICY_P1,0,l3123452.3,1.0516120492249854,over
POLICY_P1,0,l2955077.3,1.0509231738623857,over
POLICY_P1,0,m1166374.3,1.0505794955102172,over
POLICY_P1,0,l2820590.3,1.0511497725290784,over
POLICY_P1,0,d5861005-2_int.3,1.0509478001446326,over
POLICY_P1,0,l3198347.3,1.0503247031652363,over
POLICY_P1,0,l3160861.3,1.0510906006562108,over
POLICY_P1,0,l3214069.3,1.05146346258056,over
POLICY_P1,0,l3552667.3,1.0510740664679357,over
POLICY_P1,0,m1209795.3,1.0502471249076506,over
POLICY_P1,0,m1108378.3,1.0520778500848873,over
POLICY_P1,0,m1108490.3,1.0526375532630896,over
POLICY_P1,0,m1125960.3,1.0514982013211365,over
POLICY_P1,0,p829957.3,1.0502142387567674,over
POLICY_P1,0,l3067478.3,1.0521063416874237,over
POLICY_P1,0,m1125994.3,1.0522178474942627,over
POLICY_P1,0,l2842329.3,1.05143723833134,over
POLICY_P1,0,m1125961.3,1.0515041641656355,over
POLICY_P1,0,l2973791.3,1.0523484124394664,over
POLICY_P1,0,l3179650.3,1.05239470871904,over
POLICY_P1,0,p860843.3,1.0518382916467892,over
POLICY_P1,0,m1209814.1,1.0505056633944567,over
POLICY_P1,0,m1209814.2,1.050177192586932,over
POLICY_P1,0,m1209814.3,1.0505720387963262,over
POLICY_P1,0,m1209811.1,1.050291016454762,over
POLICY_P1,0,m1209811.3,1.0505103014511388,over
POLICY_P1,0,m1108395.3,1.0514257223642158,over
POLICY_P1,0,l2728247.3,1.0513738018866157,over
...
